7871
  -OEChem-05192617292D

  8  7  0     1  0  0  0  0  0999 V2000
    2.8660    0.0670    0.0000 P   0  0  3  0  0  0  0  0  0  0  0  0
    2.0000   -0.4330    0.0000 F   0  0  0  0  0  0  0  0  0  0  0  0
    3.7321    0.5670    0.0000 O   0  0  0  0  0  0  0  0  0  0  0  0
    3.3660   -0.7990    0.0000 O   0  0  0  0  0  0  0  0  0  0  0  0
    4.5981    0.0670    0.0000 C   0  0  0  0  0  0  0  0  0  0  0  0
    5.4641    0.5670    0.0000 C   0  0  0  0  0  0  0  0  0  0  0  0
    4.5981   -0.9330    0.0000 C   0  0  0  0  0  0  0  0  0  0  0  0
    2.3660    0.9330    0.0000 C   0  0  0  0  0  0  0  0  0  0  0  0
  1  2  1  0  0  0  0
  1  3  1  0  0  0  0
  1  4  2  0  0  0  0
  1  8  1  0  0  0  0
  3  5  1  0  0  0  0
  5  6  1  0  0  0  0
  5  7  1  0  0  0  0
M  END
> <PUBCHEM_COMPOUND_CID>
7871

> <PUBCHEM_COMPOUND_CANONICALIZED>
1

> <PUBCHEM_CACTVS_COMPLEXITY>
113

> <PUBCHEM_CACTVS_HBOND_ACCEPTOR>
3

> <PUBCHEM_CACTVS_HBOND_DONOR>
0

> <PUBCHEM_CACTVS_ROTATABLE_BOND>
2

> <PUBCHEM_CACTVS_SUBSKEYS>
AAADccBgMQIAAAAAAAAAAAAAAAAAAAAAAAAAAAAAAAAAAAAAAAAAGggAACgACBSggAICAAAAARAAQAAAAIAAAAAAAAAAAAAAAAAAAAAAAAAAAAAAAAAAAAAAAAAAAAAAAAAAAAAAAAAAAAAAAAAAAAAAAA==

> <PUBCHEM_IUPAC_OPENEYE_NAME>
2-[fluoro(methyl)phosphoryl]oxypropane

> <PUBCHEM_IUPAC_CAS_NAME>
2-[fluoro(methyl)phosphoryl]oxypropane

> <PUBCHEM_IUPAC_NAME_MARKUP>
2-[fluoro(methyl)phosphoryl]oxypropane

> <PUBCHEM_IUPAC_NAME>
2-[fluoro(methyl)phosphoryl]oxypropane

> <PUBCHEM_IUPAC_SYSTEMATIC_NAME>
2-[fluoranyl(methyl)phosphoryl]oxypropane

> <PUBCHEM_IUPAC_TRADITIONAL_NAME>
2-[fluoro(methyl)phosphoryl]oxypropane

> <PUBCHEM_IUPAC_INCHI>
InChI=1S/C4H10FO2P/c1-4(2)7-8(3,5)6/h4H,1-3H3

> <PUBCHEM_IUPAC_INCHIKEY>
DYAHQFWOVKZOOW-UHFFFAOYSA-N

> <PUBCHEM_XLOGP3_AA>
0.8

> <PUBCHEM_EXACT_MASS>
140.04024472

> <PUBCHEM_MOLECULAR_FORMULA>
C4H10FO2P

> <PUBCHEM_MOLECULAR_WEIGHT>
140.09

> <PUBCHEM_SMILES>
CC(C)OP(=O)(C)F

> <PUBCHEM_CONNECTIVITY_SMILES>
CC(C)OP(=O)(C)F

> <PUBCHEM_CACTVS_TPSA>
26.3

> <PUBCHEM_MONOISOTOPIC_WEIGHT>
140.04024472

> <PUBCHEM_TOTAL_CHARGE>
0

> <PUBCHEM_HEAVY_ATOM_COUNT>
8

> <PUBCHEM_ATOM_DEF_STEREO_COUNT>
0

> <PUBCHEM_ATOM_UDEF_STEREO_COUNT>
1

> <PUBCHEM_BOND_DEF_STEREO_COUNT>
0

> <PUBCHEM_BOND_UDEF_STEREO_COUNT>
0

> <PUBCHEM_ISOTOPIC_ATOM_COUNT>
0

> <PUBCHEM_COMPONENT_COUNT>
1

> <PUBCHEM_CACTVS_TAUTO_COUNT>
-1

> <PUBCHEM_COORDINATE_TYPE>
1
5
255

> <PUBCHEM_BONDANNOTATIONS>
1  8  3
