7871
  -OEChem-05192617292D

  8  7  0     1  0  0  0  0  0999 V2000
    2.8660    0.0670    0.0000 P   0  0  3  0  0  0  0  0  0  0  0  0
    2.0000   -0.4330    0.0000 F   0  0  0  0  0  0  0  0  0  0  0  0
    3.7321    0.5670    0.0000 O   0  0  0  0  0  0  0  0  0  0  0  0
    3.3660   -0.7990    0.0000 O   0  0  0  0  0  0  0  0  0  0  0  0
    4.5981    0.0670    0.0000 C   0  0  0  0  0  0  0  0  0  0  0  0
    5.4641    0.5670    0.0000 C   0  0  0  0  0  0  0  0  0  0  0  0
    4.5981   -0.9330    0.0000 C   0  0  0  0  0  0  0  0  0  0  0  0
    2.3660    0.9330    0.0000 C   0  0  0  0  0  0  0  0  0  0  0  0
  1  2  1  0  0  0  0
  1  3  1  0  0  0  0
  1  4  2  0  0  0  0
  1  8  1  0  0  0  0
  3  5  1  0  0  0  0
  5  6  1  0  0  0  0
  5  7  1  0  0  0  0
M  END
> <NAME>
1

> <SOURCE>
C:\Users\mrich\Documents3\lists\opcw\1.mol

$$$$
C2H6FO2P
NCtclcactv05192617503D 0   0.00000     0.00000
 
  6  5  0  0  0  0  0  0  0  0999 V2000
   -1.6000   -1.1000    0.0000 C   0  0  0  0  0  0  0  0  0  0  0  0
    0.0000    0.0000    0.0000 P   0  0  0  0  0  0  0  0  0  0  0  0
   -1.8000    1.0000    0.0000 O   0  0  0  0  0  0  0  0  0  0  0  0
   -3.2000    0.9000    0.0000 C   0  0  0  0  0  0  0  0  0  0  0  0
    1.8000    1.0000    0.0000 O   0  0  0  0  0  0  0  0  0  0  0  0
    0.0000   -2.0000    0.0000 F   0  0  0  0  0  0  0  0  0  0  0  0
  1  2  1  0  0  0  0
  2  3  1  0  0  0  0
  3  4  1  0  0  0  0
  2  5  2  0  0  0  0
  2  6  1  0  0  0  0
M  END
> <NAME>
1_1

> <SOURCE>
C:\Users\mrich\Documents3\lists\opcw\1_1.mol

$$$$
C3H8FO2P
NCtclcactv05192618053D 0   0.00000     0.00000
 
  7  6  0  0  0  0  0  0  0  0999 V2000
   -1.6000   -1.1000    0.0000 C   0  0  0  0  0  0  0  0  0  0  0  0
    0.0000    0.0000    0.0000 P   0  0  0  0  0  0  0  0  0  0  0  0
   -1.8000    1.0000    0.0000 O   0  0  0  0  0  0  0  0  0  0  0  0
   -3.2000    0.9000    0.0000 C   0  0  0  0  0  0  0  0  0  0  0  0
   -4.5500    1.6500    0.0000 C   0  0  0  0  0  0  0  0  0  0  0  0
    1.8000    1.0000    0.0000 O   0  0  0  0  0  0  0  0  0  0  0  0
    0.0000   -2.0000    0.0000 F   0  0  0  0  0  0  0  0  0  0  0  0
  1  2  1  0  0  0  0
  2  3  1  0  0  0  0
  3  4  1  0  0  0  0
  4  5  1  0  0  0  0
  2  6  2  0  0  0  0
  2  7  1  0  0  0  0
M  END
> <NAME>
1_2

> <SOURCE>
C:\Users\mrich\Documents3\lists\opcw\1_2.mol

$$$$
C4H10FO2P
NCtclcactv05192618053D 0   0.00000     0.00000
 
  8  7  0  0  0  0  0  0  0  0999 V2000
   -1.6000   -1.1000    0.0000 C   0  0  0  0  0  0  0  0  0  0  0  0
    0.0000    0.0000    0.0000 P   0  0  0  0  0  0  0  0  0  0  0  0
   -1.8000    1.0000    0.0000 O   0  0  0  0  0  0  0  0  0  0  0  0
   -3.2000    0.9000    0.0000 C   0  0  0  0  0  0  0  0  0  0  0  0
   -4.5500    1.6500    0.0000 C   0  0  0  0  0  0  0  0  0  0  0  0
   -5.9000    0.9000    0.0000 C   0  0  0  0  0  0  0  0  0  0  0  0
    1.8000    1.0000    0.0000 O   0  0  0  0  0  0  0  0  0  0  0  0
    0.0000   -2.0000    0.0000 F   0  0  0  0  0  0  0  0  0  0  0  0
  1  2  1  0  0  0  0
  2  3  1  0  0  0  0
  3  4  1  0  0  0  0
  4  5  1  0  0  0  0
  5  6  1  0  0  0  0
  2  7  2  0  0  0  0
  2  8  1  0  0  0  0
M  END
> <NAME>
1_3

> <SOURCE>
C:\Users\mrich\Documents3\lists\opcw\1_3.mol

$$$$
C5H12FO2P
NCtclcactv05192618053D 0   0.00000     0.00000
 
  9  8  0  0  0  0  0  0  0  0999 V2000
   -1.6000   -1.1000    0.0000 C   0  0  0  0  0  0  0  0  0  0  0  0
    0.0000    0.0000    0.0000 P   0  0  0  0  0  0  0  0  0  0  0  0
   -1.8000    1.0000    0.0000 O   0  0  0  0  0  0  0  0  0  0  0  0
   -3.2000    0.9000    0.0000 C   0  0  0  0  0  0  0  0  0  0  0  0
   -4.5500    1.6500    0.0000 C   0  0  0  0  0  0  0  0  0  0  0  0
   -5.9000    0.9000    0.0000 C   0  0  0  0  0  0  0  0  0  0  0  0
   -7.2500    1.6500    0.0000 C   0  0  0  0  0  0  0  0  0  0  0  0
    1.8000    1.0000    0.0000 O   0  0  0  0  0  0  0  0  0  0  0  0
    0.0000   -2.0000    0.0000 F   0  0  0  0  0  0  0  0  0  0  0  0
  1  2  1  0  0  0  0
  2  3  1  0  0  0  0
  3  4  1  0  0  0  0
  4  5  1  0  0  0  0
  5  6  1  0  0  0  0
  6  7  1  0  0  0  0
  2  8  2  0  0  0  0
  2  9  1  0  0  0  0
M  END
> <NAME>
1_4

> <SOURCE>
C:\Users\mrich\Documents3\lists\opcw\1_4.mol

$$$$
C6H14FO2P
NCtclcactv05192618053D 0   0.00000     0.00000
 
 10  9  0  0  0  0  0  0  0  0999 V2000
   -1.6000   -1.1000    0.0000 C   0  0  0  0  0  0  0  0  0  0  0  0
    0.0000    0.0000    0.0000 P   0  0  0  0  0  0  0  0  0  0  0  0
   -1.8000    1.0000    0.0000 O   0  0  0  0  0  0  0  0  0  0  0  0
   -3.2000    0.9000    0.0000 C   0  0  0  0  0  0  0  0  0  0  0  0
   -4.5500    1.6500    0.0000 C   0  0  0  0  0  0  0  0  0  0  0  0
   -5.9000    0.9000    0.0000 C   0  0  0  0  0  0  0  0  0  0  0  0
   -7.2500    1.6500    0.0000 C   0  0  0  0  0  0  0  0  0  0  0  0
   -8.6000    0.9000    0.0000 C   0  0  0  0  0  0  0  0  0  0  0  0
    1.8000    1.0000    0.0000 O   0  0  0  0  0  0  0  0  0  0  0  0
    0.0000   -2.0000    0.0000 F   0  0  0  0  0  0  0  0  0  0  0  0
  1  2  1  0  0  0  0
  2  3  1  0  0  0  0
  3  4  1  0  0  0  0
  4  5  1  0  0  0  0
  5  6  1  0  0  0  0
  6  7  1  0  0  0  0
  7  8  1  0  0  0  0
  2  9  2  0  0  0  0
  2 10  1  0  0  0  0
M  END
> <NAME>
1_5

> <SOURCE>
C:\Users\mrich\Documents3\lists\opcw\1_5.mol

$$$$
C7H16FO2P
NCtclcactv05192618053D 0   0.00000     0.00000
 
 11 10  0  0  0  0  0  0  0  0999 V2000
   -1.6000   -1.1000    0.0000 C   0  0  0  0  0  0  0  0  0  0  0  0
    0.0000    0.0000    0.0000 P   0  0  0  0  0  0  0  0  0  0  0  0
   -1.8000    1.0000    0.0000 O   0  0  0  0  0  0  0  0  0  0  0  0
   -3.2000    0.9000    0.0000 C   0  0  0  0  0  0  0  0  0  0  0  0
   -4.5500    1.6500    0.0000 C   0  0  0  0  0  0  0  0  0  0  0  0
   -5.9000    0.9000    0.0000 C   0  0  0  0  0  0  0  0  0  0  0  0
   -7.2500    1.6500    0.0000 C   0  0  0  0  0  0  0  0  0  0  0  0
   -8.6000    0.9000    0.0000 C   0  0  0  0  0  0  0  0  0  0  0  0
   -9.9500    1.6500    0.0000 C   0  0  0  0  0  0  0  0  0  0  0  0
    1.8000    1.0000    0.0000 O   0  0  0  0  0  0  0  0  0  0  0  0
    0.0000   -2.0000    0.0000 F   0  0  0  0  0  0  0  0  0  0  0  0
  1  2  1  0  0  0  0
  2  3  1  0  0  0  0
  3  4  1  0  0  0  0
  4  5  1  0  0  0  0
  5  6  1  0  0  0  0
  6  7  1  0  0  0  0
  7  8  1  0  0  0  0
  8  9  1  0  0  0  0
  2 10  2  0  0  0  0
  2 11  1  0  0  0  0
M  END
> <NAME>
1_6

> <SOURCE>
C:\Users\mrich\Documents3\lists\opcw\1_6.mol

$$$$
C8H18FO2P
NCtclcactv05192618053D 0   0.00000     0.00000
 
 12 11  0  0  0  0  0  0  0  0999 V2000
   -1.6000   -1.1000    0.0000 C   0  0  0  0  0  0  0  0  0  0  0  0
    0.0000    0.0000    0.0000 P   0  0  0  0  0  0  0  0  0  0  0  0
   -1.8000    1.0000    0.0000 O   0  0  0  0  0  0  0  0  0  0  0  0
   -3.2000    0.9000    0.0000 C   0  0  0  0  0  0  0  0  0  0  0  0
   -4.5500    1.6500    0.0000 C   0  0  0  0  0  0  0  0  0  0  0  0
   -5.9000    0.9000    0.0000 C   0  0  0  0  0  0  0  0  0  0  0  0
   -7.2500    1.6500    0.0000 C   0  0  0  0  0  0  0  0  0  0  0  0
   -8.6000    0.9000    0.0000 C   0  0  0  0  0  0  0  0  0  0  0  0
   -9.9500    1.6500    0.0000 C   0  0  0  0  0  0  0  0  0  0  0  0
  -11.3000    0.9000    0.0000 C   0  0  0  0  0  0  0  0  0  0  0  0
    1.8000    1.0000    0.0000 O   0  0  0  0  0  0  0  0  0  0  0  0
    0.0000   -2.0000    0.0000 F   0  0  0  0  0  0  0  0  0  0  0  0
  1  2  1  0  0  0  0
  2  3  1  0  0  0  0
  3  4  1  0  0  0  0
  4  5  1  0  0  0  0
  5  6  1  0  0  0  0
  6  7  1  0  0  0  0
  7  8  1  0  0  0  0
  8  9  1  0  0  0  0
  9 10  1  0  0  0  0
  2 11  2  0  0  0  0
  2 12  1  0  0  0  0
M  END
> <NAME>
1_7

> <SOURCE>
C:\Users\mrich\Documents3\lists\opcw\1_7.mol

$$$$
C9H20FO2P
NCtclcactv05192618053D 0   0.00000     0.00000
 
 13 12  0  0  0  0  0  0  0  0999 V2000
   -1.6000   -1.1000    0.0000 C   0  0  0  0  0  0  0  0  0  0  0  0
    0.0000    0.0000    0.0000 P   0  0  0  0  0  0  0  0  0  0  0  0
   -1.8000    1.0000    0.0000 O   0  0  0  0  0  0  0  0  0  0  0  0
   -3.2000    0.9000    0.0000 C   0  0  0  0  0  0  0  0  0  0  0  0
   -4.5500    1.6500    0.0000 C   0  0  0  0  0  0  0  0  0  0  0  0
   -5.9000    0.9000    0.0000 C   0  0  0  0  0  0  0  0  0  0  0  0
   -7.2500    1.6500    0.0000 C   0  0  0  0  0  0  0  0  0  0  0  0
   -8.6000    0.9000    0.0000 C   0  0  0  0  0  0  0  0  0  0  0  0
   -9.9500    1.6500    0.0000 C   0  0  0  0  0  0  0  0  0  0  0  0
  -11.3000    0.9000    0.0000 C   0  0  0  0  0  0  0  0  0  0  0  0
  -12.6500    1.6500    0.0000 C   0  0  0  0  0  0  0  0  0  0  0  0
    1.8000    1.0000    0.0000 O   0  0  0  0  0  0  0  0  0  0  0  0
    0.0000   -2.0000    0.0000 F   0  0  0  0  0  0  0  0  0  0  0  0
  1  2  1  0  0  0  0
  2  3  1  0  0  0  0
  3  4  1  0  0  0  0
  4  5  1  0  0  0  0
  5  6  1  0  0  0  0
  6  7  1  0  0  0  0
  7  8  1  0  0  0  0
  8  9  1  0  0  0  0
  9 10  1  0  0  0  0
 10 11  1  0  0  0  0
  2 12  2  0  0  0  0
  2 13  1  0  0  0  0
M  END
> <NAME>
1_8

> <SOURCE>
C:\Users\mrich\Documents3\lists\opcw\1_8.mol

$$$$
C10H22FO2P
NCtclcactv05192618053D 0   0.00000     0.00000
 
 14 13  0  0  0  0  0  0  0  0999 V2000
   -1.6000   -1.1000    0.0000 C   0  0  0  0  0  0  0  0  0  0  0  0
    0.0000    0.0000    0.0000 P   0  0  0  0  0  0  0  0  0  0  0  0
   -1.8000    1.0000    0.0000 O   0  0  0  0  0  0  0  0  0  0  0  0
   -3.2000    0.9000    0.0000 C   0  0  0  0  0  0  0  0  0  0  0  0
   -4.5500    1.6500    0.0000 C   0  0  0  0  0  0  0  0  0  0  0  0
   -5.9000    0.9000    0.0000 C   0  0  0  0  0  0  0  0  0  0  0  0
   -7.2500    1.6500    0.0000 C   0  0  0  0  0  0  0  0  0  0  0  0
   -8.6000    0.9000    0.0000 C   0  0  0  0  0  0  0  0  0  0  0  0
   -9.9500    1.6500    0.0000 C   0  0  0  0  0  0  0  0  0  0  0  0
  -11.3000    0.9000    0.0000 C   0  0  0  0  0  0  0  0  0  0  0  0
  -12.6500    1.6500    0.0000 C   0  0  0  0  0  0  0  0  0  0  0  0
  -14.0000    0.9000    0.0000 C   0  0  0  0  0  0  0  0  0  0  0  0
    1.8000    1.0000    0.0000 O   0  0  0  0  0  0  0  0  0  0  0  0
    0.0000   -2.0000    0.0000 F   0  0  0  0  0  0  0  0  0  0  0  0
  1  2  1  0  0  0  0
  2  3  1  0  0  0  0
  3  4  1  0  0  0  0
  4  5  1  0  0  0  0
  5  6  1  0  0  0  0
  6  7  1  0  0  0  0
  7  8  1  0  0  0  0
  8  9  1  0  0  0  0
  9 10  1  0  0  0  0
 10 11  1  0  0  0  0
 11 12  1  0  0  0  0
  2 13  2  0  0  0  0
  2 14  1  0  0  0  0
M  END
> <NAME>
1_9

> <SOURCE>
C:\Users\mrich\Documents3\lists\opcw\1_9.mol

$$$$
C10H20FO2P
NCtclcactv05192618072D 0   0.00000     0.00000
 
 14 14  0  0  0  0  0  0  0  0999 V2000
   -1.6000   -1.1000    0.0000 C   0  0  0  0  0  0  0  0  0  0  0  0
    0.0000    0.0000    0.0000 P   0  0  0  0  0  0  0  0  0  0  0  0
   -1.8000    1.0000    0.0000 O   0  0  0  0  0  0  0  0  0  0  0  0
   -3.2000    0.9000    0.0000 C   0  0  0  0  0  0  0  0  0  0  0  0
   -3.9866    3.0613    0.0000 C   0  0  0  0  0  0  0  0  0  0  0  0
   -5.9785    4.2113    0.0000 C   0  0  0  0  0  0  0  0  0  0  0  0
   -8.2436    3.8119    0.0000 C   0  0  0  0  0  0  0  0  0  0  0  0
   -9.7220    2.0500    0.0000 C   0  0  0  0  0  0  0  0  0  0  0  0
   -9.7220   -0.2500    0.0000 C   0  0  0  0  0  0  0  0  0  0  0  0
   -8.2436   -2.0119    0.0000 C   0  0  0  0  0  0  0  0  0  0  0  0
   -5.9785   -2.4113    0.0000 C   0  0  0  0  0  0  0  0  0  0  0  0
   -3.9866   -1.2613    0.0000 C   0  0  0  0  0  0  0  0  0  0  0  0
    1.8000    1.0000    0.0000 O   0  0  0  0  0  0  0  0  0  0  0  0
    0.0000   -2.0000    0.0000 F   0  0  0  0  0  0  0  0  0  0  0  0
  1  2  1  0  0  0  0
  2  3  1  0  0  0  0
  3  4  1  0  0  0  0
  4  5  1  0  0  0  0
  5  6  1  0  0  0  0
  6  7  1  0  0  0  0
  7  8  1  0  0  0  0
  8  9  1  0  0  0  0
  9 10  1  0  0  0  0
 10 11  1  0  0  0  0
 11 12  1  0  0  0  0
  4 12  1  0  0  0  0
  2 13  2  0  0  0  0
  2 14  1  0  0  0  0
M  END
> <NAME>
1_10

> <SOURCE>
C:\Users\mrich\Documents3\lists\opcw\1_10.mol

$$$$
